cps/model/matpower/case9Q.m
function mpc = case9Q
mpc.version = '2';
mpc.baseMVA = 100;
mpc.bus =[
	1	3	0	0	0	0	1	1.0296886	0.0	345	1	1.1	0.9;
	2	3	0	0	0	0	1	1.0999999	0.0	345	1	1.1	0.9;
	3	3	0	0	0	0	1	1.0596473	0.0	345	1	1.1	0.9;
	4	1	30.0	30.0	0	0	1	1.0183233	-4.7759361	345	1	1.1	0.9;
	5	1	90.0	30.0	0	0	1	1.0156679	-7.2686105	345	1	1.1	0.9;
	6	1	30.0	30.0	0	0	1	1.0513457	-3.6156352	345	1	1.1	0.9;
	7	1	100.0	35.0	0	0	1	1.0479797	-6.0749574	345	1	1.1	0.9;
	8	1	30.0	30.0	0	0	1	1.0655007	-4.1798725	345	1	1.1	0.9;
	9	1	125.0	50.0	0	0	1	1.0079643	-8.2355394	345	1	1.1	0.9;
];
mpc.gen = [
	1	151.56604	26.637806	300	-300	1	100	1	250	10	0	0	0	0	0	0	0	0	0	0	0;
	2	136.6852	65.706535	300	-300	1	100	1	300	10	0	0	0	0	0	0	0	0	0	0	0;
	3	119.89	18.795725	300	-300	1	100	1	270	10	0	0	0	0	0	0	0	0	0	0	0;
];
mpc.branch =[
	1	4	0	0.0576	0	250	250	250	0	0	1	-360	360;
	4	5	0.017	0.092	0.158	250	250	250	0	0	1	-360	360;
	5	6	0.039	0.17	0.358	150	150	150	0	0	1	-360	360;
	3	6	0	0.0586	0	300	300	300	0	0	1	-360	360;
	6	7	0.0119	0.1008	0.209	150	150	150	0	0	1	-360	360;
	7	8	0.0085	0.072	0.149	250	250	250	0	0	1	-360	360;
	8	2	0	0.0625	0	250	250	250	0	0	1	-360	360;
	8	9	0.032	0.161	0.306	250	250	250	0	0	1	-360	360;
	9	4	0.01	0.085	0.176	250	250	250	0	0	1	-360	360;
];
mpc.gencost = [
	2	1500	0	3	0.11	5	150;
	2	2000	0	3	0.085	1.2	600;
	2	3000	0	3	0.1225	1	335;
	2	0	0	3	0.2	0	0;
	2	0	0	3	0.05	0	0;
	2	0	0	3	0.3	0	0;
];
